65
Structure: TS1 Stoichiometry: C24H37ScN3+
   N     0.659374    2.204150    0.385901
   N     1.317632   -2.050054   -0.508971
   C    -0.078437    0.721676   -1.933975
   H     0.929988    1.095334   -2.168443
   H    -0.506225    0.191173   -2.797634
   C    -1.020942    1.660651   -1.326003
   C    -0.705726    2.355401   -0.107214
   C    -1.666977    3.147779    0.555895
   H    -1.399258    3.683581    1.469709
   C    -2.958806    3.266023    0.043842
   H    -3.696825    3.885674    0.561352
   C    -3.295558    2.601121   -1.153827
   H    -4.301265    2.708080   -1.572681
   C    -2.354590    1.814730   -1.810034
   H    -2.620744    1.307783   -2.743216
   C     0.874266    2.623110    1.790058
   H     0.768241    3.718243    1.900648
   H     1.899304    2.344833    2.074662
   H     0.160722    2.118614    2.455788
   C     1.647334    2.926160   -0.468216
   H     1.437225    2.744292   -1.529110
   H     2.659754    2.572627   -0.226408
   H     1.571680    4.011575   -0.274631
   C     1.650555   -0.671134    2.026807
   H     1.980736   -0.116244    2.917912
   H     1.486338   -1.721016    2.314244
   C     2.591556   -0.468471    0.894914
   C     2.411429   -1.097197   -0.383325
   C     3.269070   -0.787892   -1.461732
   H     3.125508   -1.275459   -2.427763
   C     4.313235    0.121478   -1.302550
   H     4.973647    0.343877   -2.145711
   C     4.526123    0.727822   -0.050205
   H     5.362824    1.419352    0.089889
   C     3.677263    0.442487    1.015587
   H     3.858406    0.901368    1.993374
   C     1.578853   -3.318581    0.229706
   H     0.661771   -3.926135    0.239676
   H     1.898770   -3.118812    1.259263
   H     2.380355   -3.883834   -0.279756
   C     0.975237   -2.411618   -1.908578
   H     0.814862   -1.503356   -2.501017
   H     0.045179   -2.998949   -1.894998
   H     1.771163   -3.030759   -2.363091
   Sc    0.161284   -0.074684    0.187159
   C    -1.738831   -2.415621    1.382212
   C    -2.153818   -3.314014    0.216026
   N    -1.745087   -0.978230    0.994722
   C    -3.510515   -2.896620   -0.368897
   C    -3.497510   -1.401033   -0.714249
   C    -3.092778   -0.573962    0.502859
   C    -1.212066   -0.102821    2.055592
   H    -0.729723   -2.670259    1.746545
   H    -2.436925   -2.546533    2.235598
   H    -1.384756   -3.250346   -0.574503
   H    -2.175333   -4.361413    0.563889
   H    -3.745487   -3.504225   -1.259365
   H    -4.307706   -3.093959    0.372767
   H    -2.781617   -1.203337   -1.535395
   H    -4.489339   -1.065281   -1.062383
   H    -3.055456    0.499310    0.267415
   H    -3.820065   -0.716494    1.328791
   H    -1.729141    0.868548    2.038027
   H     0.303963   -0.237352    2.085062
   H    -1.291182   -0.550045    3.061442
