59
Structure: TS10 Stoichiometry: C16H36N4NaONb+
   N     0.190059   -0.153267    1.622436
   C    -0.391602   -0.357383    3.230049
   O    -0.539957   -1.549162    3.437526
   Na   -0.249710   -2.503738    1.414104
   Nb    0.119614    0.102431   -0.132259
   N    -1.031647   -1.536946   -0.819780
   N     1.983073   -0.253510   -0.835923
   N    -0.545957    1.976170   -0.519854
   C    -2.507024   -1.666162   -0.625191
   C     3.239180   -0.644926   -0.132347
   C    -0.744328    3.180213    0.335950
   C    -2.888751   -3.116990   -0.239528
   C    -3.277305   -1.272895   -1.908003
   C    -2.941496   -0.717597    0.506910
   C     4.283973   -1.203831   -1.123742
   C     3.809850    0.588433    0.602379
   C     2.922929   -1.749055    0.895699
   C    -2.208587    3.230287    0.827339
   C    -0.408813    4.465980   -0.452833
   C     0.194756    3.092168    1.551157
   H    -2.509807   -3.847696   -0.975147
   H    -3.984343   -3.238543   -0.180756
   H    -2.491635   -3.389177    0.759254
   H    -2.996835   -0.252909   -2.222056
   H    -4.365464   -1.289814   -1.722449
   H    -3.069928   -1.963112   -2.743129
   H    -2.472381   -0.972621    1.472288
   H    -4.035941   -0.754902    0.643946
   H    -2.662431    0.325557    0.268356
   H     3.867143   -2.048088   -1.701781
   H     5.161420   -1.571655   -0.564944
   H     4.640225   -0.437312   -1.832053
   H     4.001768    1.410673   -0.109733
   H     4.760733    0.349205    1.111795
   H     3.080338    0.938698    1.352119
   H     2.212199   -1.367559    1.647059
   H     3.843422   -2.073318    1.411204
   H     2.490981   -2.629560    0.379357
   H    -2.917424    3.210107   -0.020346
   H    -2.400081    4.153207    1.403415
   H    -2.414346    2.365812    1.480575
   H    -1.118243    4.650409   -1.278368
   H     0.610975    4.406327   -0.873230
   H    -0.452290    5.338011    0.222143
   H     0.059418    3.979573    2.194486
   H     1.247987    3.060783    1.218998
   H    -0.007879    2.186695    2.145030
   C     2.167766    0.337477   -2.163943
   H     1.199530    0.718288   -2.540350
   H     2.866843    1.199310   -2.157973
   H     2.529199   -0.396594   -2.911154
   C    -1.054174    2.080524   -1.887609
   H    -0.993832    1.088651   -2.383181
   H    -2.124899    2.373355   -1.923841
   H    -0.484166    2.793808   -2.516869
   C    -0.523669   -2.191649   -2.035545
   H    -0.800267   -1.668987   -2.976974
   H     0.577350   -2.230633   -1.989363
   H    -0.889988   -3.235947   -2.131668
