19
Structure: TS15 Stoichiometry: C5H11P2Rh+
   C    -1.329395   -0.436375   -1.085218
   C    -2.653197    0.018657   -0.902920
   C    -3.157293   -0.110014    0.390965
   C    -2.276406   -0.810406    1.262305
   C    -1.031182   -1.140189    0.754207
   Rh    0.468506   -0.192942   -0.318824
   P     2.711684   -0.488577    0.241439
   P     0.134513    1.865313    0.321508
   H     0.797202    2.395204    1.467965
   H     0.351564    2.990575   -0.531306
   H    -1.212924    2.140958    0.690452
   H     3.758770   -0.258424   -0.705676
   H     3.279313    0.328363    1.264400
   H     3.267035   -1.712745    0.734777
   H    -4.146452    0.247795    0.695235
   H    -2.572593   -1.100495    2.277777
   H    -3.247387    0.395701   -1.742963
   H    -0.988948   -0.722699   -2.107542
   H    -0.376474   -1.802912    1.343720
