92
Structure: TS17 Stoichiometry: C31H55BrPdNP3+
   C     7.527451   -0.426880   -1.340856
   C     6.988783   -0.000163   -0.101875
   C     7.911379    0.573911    0.805097
   C     9.259306    0.691933    0.449887
   N     9.763686    0.287641   -0.728188
   C     8.890879   -0.261712   -1.594315
   C     5.581623   -0.117483    0.267801
   C     4.585827   -0.632237   -0.507953
   C     3.176044   -0.746902   -0.167566
   C     2.272136   -1.264563   -1.120544
   C     0.898451   -1.356072   -0.858501
   C     0.360738   -0.886788    0.361445
   C     1.276867   -0.464682    1.359262
   C     2.638124   -0.376334    1.096455
   Pd   -1.287536    0.187810   -0.197038
   P    -1.784887    1.946935   -1.789825
   P    -1.285429    1.421837    1.810691
   P    -2.572480   -1.695049   -0.903667
   Br   -0.550476   -3.030075    2.031000
   C    -3.630820   -2.012434    0.592139
   C    -3.825179   -1.459236   -2.269918
   C    -1.851150   -3.363579   -1.296654
   H     0.917136   -0.219984    2.360602
   H     3.305235   -0.025654    1.891126
   H     2.653741   -1.604057   -2.091406
   H     0.247659   -1.785151   -1.620113
   H     6.889987   -0.886462   -2.102894
   H     9.309602   -0.592646   -2.555158
   H     9.974140    1.138049    1.155749
   H     7.568751    0.924921    1.785304
   C    -1.535919    0.247299    3.225971
   C     0.152780    2.538909    2.256050
   H    -4.349460   -2.419087   -2.435683
   H    -3.260038   -1.242985   -3.193874
   H    -2.626567   -4.107306   -1.039996
   H    -1.036874   -3.502812   -0.560103
   H    -2.889889   -2.256430    1.380290
   H    -4.085329   -1.039132    0.848070
   H     0.906583    1.889564    2.730711
   H     0.598085    2.847873    1.295124
   H    -2.596367   -0.051533    3.138816
   H    -0.978095   -0.683763    2.993017
   H     4.843867   -0.999833   -1.510188
   H     5.334902    0.257519    1.269116
   C    -3.164012    3.164033   -2.197309
   C    -3.535909    4.210840   -1.145427
   H    -4.047593    2.555004   -2.459235
   H    -2.840100    3.665446   -3.129578
   H    -4.274862    4.916376   -1.564030
   H    -3.986904    3.749158   -0.254869
   H    -2.661386    4.803158   -0.825191
   C    -0.362306    3.141084   -1.573165
   C     1.023139    2.488546   -1.475267
   H    -0.584688    3.693432   -0.640717
   H    -0.399912    3.877399   -2.399204
   H     1.779688    3.235792   -1.179636
   H     1.033297    1.671433   -0.731341
   H     1.338430    2.059664   -2.439988
   C    -1.562991    1.336627   -3.548038
   C    -0.604211    0.164144   -3.753626
   H    -1.260530    2.211690   -4.155025
   H    -2.578674    1.055707   -3.884794
   H    -0.600910   -0.148149   -4.812588
   H     0.428267    0.414531   -3.464095
   H    -0.912346   -0.695384   -3.138204
   C    -2.758524    2.548367    1.973137
   C    -4.075322    1.862917    1.593912
   H    -2.570716    3.416203    1.317610
   H    -2.800334    2.930669    3.009059
   H    -4.917664    2.575473    1.640640
   H    -4.018778    1.449575    0.571819
   H    -4.307411    1.029966    2.279003
   C    -1.229865    0.754193    4.638372
   H    -1.846467    1.627045    4.919639
   H    -1.432327   -0.048271    5.369055
   H    -0.167978    1.035339    4.748993
   C    -0.129607    3.767703    3.130594
   H    -0.564925    3.493325    4.105208
   H     0.812980    4.309511    3.325929
   H    -0.818914    4.473190    2.636516
   C    -4.825335   -0.337551   -1.975697
   H    -5.443540   -0.109756   -2.861871
   H    -5.504864   -0.608641   -1.150157
   H    -4.296422    0.584369   -1.676741
   C    -4.695928   -3.108611    0.480941
   H    -4.239646   -4.098301    0.311256
   H    -5.262897   -3.171910    1.426583
   H    -5.421693   -2.919412   -0.330642
   C    -1.387504   -3.580202   -2.742100
   H    -0.959981   -4.592711   -2.845904
   H    -2.217322   -3.493595   -3.465225
   H    -0.604157   -2.864897   -3.046245
