60
Structure: TS2 Stoichiometry: C21H36N2Sc+
   N     1.226750    1.356420    1.448937
   C     2.118727    1.083277   -1.290791
   H     2.982888    0.794886   -0.667992
   H     2.384359    1.084273   -2.356479
   C     1.371323    2.272635   -0.855430
   C     0.866478    2.408603    0.485688
   C    -0.007574    3.457509    0.840706
   H    -0.359786    3.552380    1.870846
   C    -0.419114    4.386457   -0.112838
   H    -1.091747    5.200654    0.171550
   C     0.040990    4.266751   -1.438787
   H    -0.278571    4.991140   -2.194494
   C     0.905173    3.237030   -1.795085
   H     1.259390    3.154007   -2.827680
   C     0.272004    1.182914    2.569376
   H     0.287531    2.038186    3.269095
   H     0.549961    0.274909    3.128663
   H    -0.755328    1.075559    2.176619
   C     2.622281    1.449978    1.951323
   H     3.307362    1.609747    1.107489
   H     2.887672    0.515761    2.471710
   H     2.714463    2.299836    2.651507
   Sc    0.473187    0.046697   -0.215424
   C     1.917803   -2.574590    1.179324
   C     3.402193   -2.408418    0.853214
   N     1.061414   -2.051209    0.077471
   C     3.747253   -3.097761   -0.474168
   C     2.862580   -2.546127   -1.600133
   C     1.377445   -2.656253   -1.249409
   C    -0.379645   -2.051504    0.333504
   H     1.639582   -2.032434    2.100280
   H     1.674091   -3.644434    1.340643
   H     3.643445   -1.330376    0.788173
   H     3.996214   -2.825424    1.684499
   H     4.812361   -2.950506   -0.719538
   H     3.589958   -4.188665   -0.372957
   H     3.111108   -1.486139   -1.785734
   H     3.036833   -3.090308   -2.543970
   H     0.754308   -2.140181   -2.006197
   H     1.048730   -3.716179   -1.235143
   H    -0.868863   -2.996943    0.057390
   H    -0.564159   -1.829772    1.401703
   C    -1.827943   -0.963722   -0.726932
   H    -1.809472   -1.683031   -1.557425
   C    -1.520578    0.396933   -1.076837
   H    -2.029313    1.202835   -0.527047
   H    -1.315286    0.627341   -2.133350
   C    -2.942466   -1.224246    0.274888
   H    -2.886835   -2.251902    0.678385
   H    -2.829176   -0.535758    1.135894
   C    -4.329784   -1.014019   -0.362613
   H    -4.433930   -1.690149   -1.233255
   H    -4.393527    0.015446   -0.761628
   C    -5.480599   -1.263269    0.623669
   H    -5.403287   -2.294045    1.020782
   H    -5.362697   -0.589171    1.494664
   C    -6.861831   -1.054935   -0.007247
   H    -7.665708   -1.238116    0.725665
   H    -6.976448   -0.022562   -0.383671
   H    -7.018492   -1.741450   -0.858476
