90
Structure: TS20 Stoichiometry: C31H53NPdP3I+
   C     7.797524   -0.026792   -1.412892
   C     7.116273   -0.091699   -0.170833
   C     7.899479    0.094798    0.996566
   C     9.270924    0.329943    0.864171
   N     9.917013    0.393735   -0.313873
   C     9.174241    0.214561   -1.420861
   C     5.718320   -0.328929   -0.099600
   C     4.506190   -0.532398   -0.038610
   C     3.106257   -0.747868    0.033756
   C     2.330596   -0.920358   -1.137753
   C     0.942373   -1.082421   -1.063682
   C     0.263155   -1.029807    0.180942
   C     1.057160   -0.961794    1.357669
   C     2.436645   -0.804473    1.290016
   Pd   -1.142168    0.437240   -0.161635
   P    -1.108235    2.715766   -1.001587
   P    -1.486528    0.848419    2.149297
   P    -2.495467   -0.769379   -1.721006
   I    -0.974539   -3.619753    0.723781
   C    -3.823987   -1.500799   -0.641819
   C    -3.463342    0.208165   -2.985610
   C    -1.908242   -2.226428   -2.721742
   H     0.584133   -1.045957    2.338414
   H     3.022697   -0.721865    2.210832
   H     2.827675   -0.931672   -2.113133
   H     0.386723   -1.258898   -1.984434
   H     7.247530   -0.165533   -2.348334
   H     9.712234    0.266648   -2.377759
   H     9.887393    0.475729    1.762221
   H     7.430865    0.053078    1.984207
   C    -2.082661   -0.701275    2.978787
   C    -0.089950    1.487548    3.235064
   H    -4.024367   -0.496122   -3.628316
   H    -2.721387    0.708463   -3.633496
   H    -2.795823   -2.851872   -2.924355
   H    -1.266734   -2.814200   -2.037922
   H    -3.266383   -2.127744    0.080869
   H    -4.242502   -0.649198   -0.077681
   H     0.368354    0.597488    3.698517
   H     0.673035    1.887980    2.546927
   H    -3.059993   -0.910700    2.508170
   H    -1.436927   -1.530201    2.630421
   C    -2.288120    4.172937   -1.165038
   C    -2.912344    4.736506    0.112272
   H    -3.078137    3.853679   -1.867535
   H    -1.706266    4.959746   -1.682744
   H    -3.497708    5.642831   -0.122286
   H    -3.595089    4.012383    0.581233
   H    -2.146198    5.023073    0.853511
   C     0.279118    3.533298   -0.053682
   C     1.574633    2.714238    0.001644
   H    -0.114156    3.690521    0.968353
   H     0.456319    4.535585   -0.489363
   H     2.284901    3.159949    0.719082
   H     1.377922    1.672154    0.312549
   H     2.073518    2.678333   -0.980198
   C    -0.505373    2.784809   -2.775695
   C     0.368985    1.624948   -3.250100
   H     0.012275    3.755428   -2.901020
   H    -1.424549    2.837187   -3.389282
   H     0.619474    1.745279   -4.318745
   H     1.308341    1.551162   -2.680702
   H    -0.161922    0.668984   -3.121864
   C    -2.881124    2.031868    2.500392
   C    -4.156712    1.680852    1.728986
   H    -2.524655    3.036442    2.217213
   H    -3.074746    2.054969    3.587451
   H    -4.936493    2.446407    1.887611
   H    -3.947142    1.610538    0.647681
   H    -4.571441    0.711693    2.054269
   C    -2.202352   -0.681519    4.505689
   H    -2.894692    0.101937    4.863001
   H    -2.585358   -1.653699    4.862258
   H    -1.223955   -0.518245    4.990011
   C    -0.436392    2.521341    4.313805
   H    -1.170360    2.132094    5.038971
   H     0.474996    2.795429    4.874434
   H    -0.847585    3.448254    3.878897
   C    -4.406288    1.237554   -2.355926
   H    -4.828880    1.911901   -3.121441
   H    -5.247709    0.749706   -1.835605
   H    -3.868922    1.852125   -1.613107
   C    -4.933012   -2.309023   -1.323839
   H    -4.535784   -3.224682   -1.792689
   H    -5.678331   -2.626560   -0.573284
   H    -5.466041   -1.727983   -2.098001
   C    -1.195940   -1.900130   -4.039961
   H    -0.884324   -2.836088   -4.535306
   H    -1.848503   -1.352582   -4.742051
   H    -0.286901   -1.293680   -3.887769
