33
Structure: TS26 Stoichiometry: C7H22P2OsO+
   Os    0.000171   -0.037174    0.007773
   H     0.170976   -0.118104    3.968788
   H    -0.019180    0.611252    3.890160
   P     2.326647   -0.290008   -0.055681
   P    -2.325173   -0.297197   -0.052299
   C    -3.334528    1.123573   -0.671568
   H    -4.415719    0.897491   -0.668005
   H    -3.136432    2.004878   -0.039123
   H    -3.010157    1.361729   -1.698264
   C    -2.921450   -1.689044   -1.110702
   H    -2.475094   -2.624998   -0.738374
   H    -4.023650   -1.762546   -1.103292
   H    -2.567547   -1.525274   -2.141852
   C    -3.140166   -0.672714    1.570695
   H    -2.951076    0.157722    2.271839
   H    -4.230084   -0.812429    1.456257
   H    -2.692988   -1.590732    1.987204
   C     2.923926   -1.537874   -1.280467
   H     4.024090   -1.634600   -1.258299
   H     2.452658   -2.506239   -1.047767
   H     2.599355   -1.228602   -2.287592
   C     3.357002    1.189110   -0.470512
   H     3.163937    1.979173    0.274148
   H     4.435618    0.951772   -0.489575
   H     3.044121    1.568469   -1.457543
   C     3.116321   -0.883606    1.513122
   H     2.661157   -1.848531    1.791724
   H     4.208041   -1.007965    1.398255
   H     2.915740   -0.156267    2.318107
   C    -0.011934    1.869626   -0.080329
   O    -0.017606    3.045167   -0.100909
   H     0.019382   -1.773651    0.171829
   H    -0.002442   -0.064970   -1.583818
