51
Structure: TS28 Stoichiometry: C17H28NP2O2Ir+
   C    -3.068806    0.593032   -1.103069
   C    -2.255840   -0.010989   -0.107826
   C    -2.944028   -0.699636    0.923912
   C    -4.344449   -0.779018    0.963940
   C    -5.118711   -0.178882   -0.041128
   C    -4.469850    0.506194   -1.079514
   Ir   -0.218461    0.112088   -0.227758
   P     0.186389   -2.127877   -0.620351
   C     1.949786   -2.210278   -0.166188
   C     2.667264   -0.949940   -0.360149
   N     1.941363    0.224114   -0.372015
   C     2.578966    1.430903   -0.396025
   C     3.973144    1.523944   -0.412862
   C     4.731484    0.340465   -0.439238
   C     4.081092   -0.888893   -0.421325
   C     1.710257    2.669504   -0.463992
   P    -0.002528    2.348582    0.217911
   H     4.647701   -1.824586   -0.428045
   H     4.453308    2.506300   -0.426176
   H     5.825231    0.386745   -0.470882
   H     2.209424    3.533740    0.008796
   H     1.549147    2.930692   -1.528801
   H     1.805634   -2.347982    1.149564
   H     2.505531   -3.097768   -0.512113
   H    -2.592673    1.147913   -1.924303
   H    -5.058580    0.982227   -1.873501
   H    -6.212194   -0.242900   -0.014564
   H    -4.835388   -1.317551    1.783982
   H    -2.365330   -1.188278    1.718347
   H     0.041606   -0.102978    1.357454
   O     0.380962   -0.272879    2.865908
   H    -0.500496   -0.515047    3.206014
   H     0.893287   -1.227535    2.740755
   O     1.462963   -2.470596    2.432357
   H     2.285304   -2.610685    2.936098
   C    -0.636819   -3.449762    0.354608
   H    -1.729535   -3.321286    0.289726
   H    -0.352876   -4.447440   -0.024136
   H    -0.287499   -3.342724    1.395854
   C    -0.013617   -2.681266   -2.374369
   H     0.389905   -3.699713   -2.513917
   H    -1.085164   -2.670549   -2.638873
   H     0.523589   -1.981698   -3.035735
   C     0.059356    2.848747    1.987281
   H     0.521127    3.843021    2.116774
   H    -0.976331    2.871238    2.367862
   H     0.606639    2.071752    2.546358
   C    -1.029850    3.662641   -0.569598
   H    -2.069888    3.536608   -0.225267
   H    -0.672932    4.675354   -0.312039
   H    -1.012181    3.530203   -1.664045
