53
Structure: TS29 Stoichiometry: C17H30P2NO2Ir+
   C     3.895897   -0.982996   -1.105137
   C     2.580529   -1.046406   -0.598608
   N     1.918395    0.111874   -0.295287
   C     2.546650    1.315713   -0.360506
   C     3.851319    1.421834   -0.854475
   C     4.521471    0.254232   -1.252662
   C     1.916691   -2.306624   -0.210778
   P     0.085633   -2.240981   -0.315085
   Ir   -0.251879    0.035274   -0.055574
   P    -0.032874    2.329322    0.011227
   C     1.807283    2.489209    0.235943
   C    -2.317878   -0.025192   -0.095677
   C    -3.038852    0.105188   -1.311179
   C    -4.441384    0.068463   -1.354796
   C    -5.186339   -0.102423   -0.178846
   C    -4.503708   -0.236161    1.038367
   C    -3.100683   -0.197476    1.074140
   O     1.828516   -1.880111    2.458549
   O     1.713965    0.611375    2.739739
   H     4.412141   -1.911101   -1.365957
   H     4.335334    2.400697   -0.909035
   H     5.537999    0.313469   -1.655871
   C    -0.472805   -2.989430   -1.898967
   C    -0.489798   -3.360055    1.016953
   H     1.943870    2.378386    1.333188
   H     2.214305    3.458905   -0.096298
   H     2.019607   -2.251572    1.008864
   H     2.388202   -3.212820   -0.623178
   C    -0.473104    3.286002   -1.494535
   C    -0.741413    3.291163    1.407500
   H    -2.486131    0.236342   -2.248463
   H    -4.955085    0.172976   -2.318429
   H    -6.281070   -0.132560   -0.210746
   H    -5.064701   -0.373162    1.970860
   H    -2.603193   -0.308218    2.046443
   H    -0.552710   -0.232870    1.719184
   H     1.401711    0.684884    3.659496
   H     1.865119   -0.458239    2.633188
   H     2.539533   -2.310753    2.967496
   H    -0.292491    0.136377   -1.651013
   H     0.208380    0.106880    1.851017
   H    -0.169323   -4.048112   -1.972328
   H    -1.572317   -2.912730   -1.954192
   H    -0.038172   -2.415248   -2.732928
   H    -0.276267   -4.417025    0.778870
   H     0.087203   -3.039638    1.908701
   H    -1.572681   -3.219301    1.169295
   H    -0.442830    4.353481    1.377046
   H    -1.840398    3.209859    1.367033
   H    -0.384368    2.828294    2.342110
   H    -0.224724    4.356535   -1.391742
   H     0.069600    2.853620   -2.350717
   H    -1.555138    3.167995   -1.674507
