15
Structure: TS33 Stoichiometry: CH11PtN2+
   H     2.656254    0.474687    0.099531
   Pt    0.001323   -0.183674   -0.069869
   C     2.053413   -0.408054    0.365735
   N     0.201132    2.066186    0.014073
   H    -0.101647   -1.739904   -0.152662
   N    -2.158682   -0.153793    0.267656
   H     1.930288   -0.489306    1.461232
   H     2.527568   -1.319534   -0.023542
   H    -2.627396    0.760391    0.317231
   H     1.141564   -0.364337   -1.107645
   H    -0.289206    2.534971    0.788479
   H     1.187830    2.344090    0.110210
   H    -0.129634    2.519743   -0.849287
   H    -2.615408   -0.675234   -0.493867
   H    -2.401053   -0.657431    1.133602
