33
Structure: TS35 Stoichiometry: C10H15N6PtB+
   C    -1.911397   -2.194434   -1.344813
   N    -1.174378   -1.300373   -0.664698
   N    -2.035904   -0.482446    0.021193
   C    -3.311299   -0.886868   -0.217757
   C    -3.279683   -1.975630   -1.088025
   B    -1.544653    0.684273    0.960022
   N    -0.527564    0.088236    1.964992
   N     0.600488   -0.477519    1.469118
   C     1.326830   -0.914244    2.511328
   C     0.652403   -0.623567    3.715381
   C    -0.524563    0.014409    3.320984
   Pt    0.692253   -0.373993   -0.686587
   N    -0.851387    1.871174    0.200629
   N     0.390282    1.776098   -0.375113
   C     0.666616    2.969048   -0.925170
   C    -0.394375    3.869262   -0.694865
   C    -1.332625    3.131313    0.024060
   H     1.611663    3.117791   -1.447957
   H    -2.304979    3.409521    0.429415
   H    -0.463284    4.913486   -0.997445
   H    -2.513109    1.121665    1.540749
   H    -1.354225    0.418458    3.899861
   H    -4.146587   -0.371723    0.255155
   H     0.975243   -0.848355    4.731005
   H    -4.127505   -2.540655   -1.473052
   H     2.283319   -1.409274    2.342025
   H    -1.419607   -2.940434   -1.968047
   H     2.739066   -0.866833   -0.841613
   H     0.668585   -0.258102   -2.255990
   C     3.843004   -0.952404   -0.639905
   H     4.128228   -0.207800    0.118359
   H     4.050869   -1.970593   -0.276766
   H     4.379645   -0.764578   -1.582209
