37
Structure: TS6 Stoichiometry: C10H20P2N2O2Fe+
   Fe   -0.677217   -0.057983   -0.204173
   P    -0.676522   -1.702235   -1.686974
   P    -0.667784    1.860602   -1.318093
   N    -0.348365   -1.495870    1.090224
   N    -0.285503    1.043747    1.356864
   H    -0.066979   -1.782245    3.184726
   H    -0.301876    0.851876    3.483094
   H    -1.621543   -1.032369    2.675891
   C    -0.535664   -1.078237    2.470843
   H     1.172881    0.232744    2.680334
   C     0.069428    0.334649    2.575207
   H     0.663648   -3.300480    1.398951
   H     0.095015    2.964577    2.113680
   C     0.269564   -2.565717    0.675309
   C    -0.152838    2.372801    1.215258
   H     0.959431   -3.621403   -1.123494
   C     0.567253   -2.669313   -0.742465
   H     1.325648   -1.512671   -0.761778
   H     0.277387    2.005212   -2.377564
   H    -1.811418    2.321798   -2.037583
   H    -0.128428   -1.643302   -2.997120
   H    -1.804324   -2.527891   -1.972208
   C    -2.392459    0.012268    0.011681
   O    -3.551586    0.074329    0.142821
   O     1.329195   -0.224920   -0.670212
   C     2.430195    0.408215   -0.017628
   C     3.402708   -0.651683    0.514468
   C     3.104873    1.381079   -0.989289
   H     2.041947    0.991238    0.838631
   H     2.899830   -1.319728    1.235596
   H     3.796912   -1.269632   -0.313105
   H     4.258757   -0.177627    1.026531
   H     2.390741    2.162698   -1.296992
   H     3.971694    1.877194   -0.515456
   H     3.453657    0.843775   -1.889492
   C    -0.314814    3.012331   -0.008103
   H    -0.274021    4.099504   -0.110301
